/*--------------------------------*- C++ -*----------------------------------*\
| =========                 |                                                 |
| \\      /  F ield         | OpenFOAM: The Open Source CFD Toolbox           |
|  \\    /   O peration     | Version:  v2012                                 |
|   \\  /    A nd           | Website:  www.openfoam.com                      |
|    \\/     M anipulation  |                                                 |
\*---------------------------------------------------------------------------*/
FoamFile
{
    version     2.0;
    format      ascii;
    class       dictionary;
    location    "constant";
    object      boundaryRadiationProperties;
}
// * * * * * * * * * * * * * * * * * * * * * * * * * * * * * * * * * * * * * //

".*"
{
    type        transparent;

    wallAbsorptionEmissionModel
    {
        type            multiBandAbsorption;
        emissivity      (1);
        absorptivity    (0);
    }

}
	
air_to_buildings
{
    type       opaqueDiffusive;
    wallAbsorptionEmissionModel
    {
        type            multiBandAbsorption;
        absorptivity    (0.66);
        emissivity      (0.95);
    };
}

air_to_soil2
{
    type       opaqueDiffusive;
    wallAbsorptionEmissionModel
    {
        type            multiBandAbsorption;
        absorptivity    (0.77);
        emissivity      (0.95);
    };
}

air_to_concrete
{
    type       opaqueDiffusive;
    wallAbsorptionEmissionModel
    {
        type            multiBandAbsorption;
        absorptivity    (0.66);
        emissivity      (0.95);
    };
}

air_to_asphalt
{
    type       opaqueDiffusive;
    wallAbsorptionEmissionModel
    {
        type            multiBandAbsorption;
        absorptivity    (0.7);
        emissivity      (0.95);
    };
}

// ************************************************************************* //
