/*--------------------------------*- C++ -*----------------------------------*\
| =========                 |                                                 |
| \\      /  F ield         | OpenFOAM: The Open Source CFD Toolbox           |
|  \\    /   O peration     | Version:  v2012                                 |
|   \\  /    A nd           | Website:  www.openfoam.com                      |
|    \\/     M anipulation  |                                                 |
\*---------------------------------------------------------------------------*/
FoamFile
{
    version     2.0;
    format      ascii;
    class       dictionary;
    location    "system/air";
    object      fvSolution;
}
// * * * * * * * * * * * * * * * * * * * * * * * * * * * * * * * * * * * * * //
solvers
{
    p_rgh
    {
        solver          PCG;
        preconditioner  DIC;
        tolerance       1e-06;
        relTol          0.01;
    }

    "(U|h|k|epsilon|R|specHum)"
    {
        solver          PBiCGStab;
        preconditioner  DILU;
        tolerance       1e-05;
        relTol          0.1;
    }
	Ii
    {
        solver              GAMG;
        tolerance           1e-4;
        relTol              0.1;
        smoother            symGaussSeidel;
        maxIter             10;
        nPostSweeps         1;
    }
}

SIMPLE
{
    nNonOrthogonalCorrectors 0;
    pRefCell        0;
    pRefValue       0;

    residualControl
    {
        p_rgh           1e-2;
        U               1e-3;
        h               1e-3;
        G               1e-3;
		specHum         1e-3;

        // possibly check turbulence fields
        "(k|epsilon|omega)" 1e-3;
    }
}

relaxationFactors
{
    fields
    {
        p_rgh           0.7;
		rho             1.0;
    }
    equations
    {
        U               0.3;
        h               0.5;
		specHum         0.5;
        "(k|epsilon|R)" 0.7;
		"ILambda.*"     0.7;
    }
}


// ************************************************************************* //
