/*--------------------------------*- C++ -*----------------------------------*\
| =========                 |                                                 |
| \\      /  F ield         | OpenFOAM: The Open Source CFD Toolbox           |
|  \\    /   O peration     | Version:  v2012                                 |
|   \\  /    A nd           | Website:  www.openfoam.com                      |
|    \\/     M anipulation  |                                                 |
\*---------------------------------------------------------------------------*/
FoamFile
{
    version     2.0;
    format      ascii;
    class       polyBoundaryMesh;
    location    "constant/polyMesh";
    object      boundary;
}
// * * * * * * * * * * * * * * * * * * * * * * * * * * * * * * * * * * * * * //

5
(
    inlet
    {
        type            patch;
        nFaces          4000;
        startFace       1064300;
    }
    outlet
    {
        type            patch;
        nFaces          4000;
        startFace       1068300;
    }
    side
    {
        type            patch;
        nFaces          9000;
        startFace       1072300;
    }
    ground
    {
        type            wall;
        inGroups        1(wall);
        nFaces          7200;
        startFace       1081300;
    }
    top
    {
        type            patch;
        nFaces          7200;
        startFace       1088500;
    }
)

// ************************************************************************* //
