/*--------------------------------*- C++ -*----------------------------------*\
| =========                 |                                                 |
| \\      /  F ield         | OpenFOAM: The Open Source CFD Toolbox           |
|  \\    /   O peration     | Version:  v2012                                 |
|   \\  /    A nd           | Website:  www.openfoam.com                      |
|    \\/     M anipulation  |                                                 |
\*---------------------------------------------------------------------------*/
FoamFile
{
    version     2.0;
    format      ascii;
    class       dictionary;
    object      topoSetDict;
}

// * * * * * * * * * * * * * * * * * * * * * * * * * * * * * * * * * * * * * //

actions
(
    
	{
        name    soil1;
        type    cellSet;
        action  new;
        source  boxToCell;
        box     (-1 -1 -2)(91 81 -0.2);
    }
	{
        name    soil2;
        type    cellSet;
        action  new;
        source  boxToCell;
        box     (-1 -1 -0.2)(91 81 0);
    }
	{
        name    air;
        type    cellSet;
        action  new;
        source  cellToCell;
        set     soil1;
    }
	{
        name    air;
        type    cellSet;
        action  add;
        source  cellToCell;
        set     soil2;
    }
	{
        name    air;
        type    cellSet;
        action  add;
        source  boxToCell;
        box     (36 36 0)(44 44 6);
    }
	
	{
        name    air;
        type    cellSet;
        action  invert;
    }
	// take the concrete patch and turn it into a set of face.
    {
	    name 	concrete;
	    type	cellSet;
	    action	new;
	    source          surfaceToCell; // surfaceToPoint;
        file            "constant/triSurface/concrete.stl";
        outsidePoints   ((0 0 0));
        includeCut      true;
        includeInside   false;
        includeOutside  false;
        nearDistance    -1;
        curvature       -100;
        useSurfaceOrientation false;
    }
	
	// take the asphalt patch and turn it into a set of face.
    {
	    name 	asphalt;
	    type	cellSet;
	    action	new;
	    source          surfaceToCell; // surfaceToPoint;
        file            "constant/triSurface/asphalt.stl";
        outsidePoints   ((0 0 0));
        includeCut      true;
        includeInside   false;
        includeOutside  false;
        nearDistance    -1;
        curvature       -100;
        useSurfaceOrientation false;
    }
	{
        name    soil1;
        type    cellZoneSet;
        action  new;
        source  setToCellZone;
        set     soil1;           
    }

	{
        name    soil2;
        type    cellSet;
        action  subtract;
        source  cellToCell;
        set     concrete;          
    }
	{
        name    soil2;
        type    cellSet;
        action  subtract;
        source  cellToCell;
        set     asphalt;         
    }
	{
        name    concrete;
        type    cellSet;
        action  subtract;
        source  cellToCell;
        set     asphalt;           
    }
	{
        name    concrete;
        type    cellZoneSet;
        action  new;
        source  setToCellZone;
        set     concrete;           
    }
	{
        name    asphalt;
        type    cellZoneSet;
        action  new;
        source  setToCellZone;
        set     asphalt;           
    }
	{
        name    soil2;
        type    cellZoneSet;
        action  new;
        source  setToCellZone;
        set     soil2;           
    }
	{
        name    air;
        type    cellZoneSet;
        action  new;
        source  setToCellZone;
        set     air;           
    }
	{
        name    buildings;
        type    cellSet;
        action  new;
        source  boxToCell;
		box    (36 36 0)(44 44 6);
        
    }
	{
        name    buildings;
        type    cellZoneSet;
        action  new;
        source  setToCellZone;
        set     buildings;          
    }
);
 
// ************************************************************************* //
