/*--------------------------------*- C++ -*----------------------------------*\
| =========                 |                                                 |
| \\      /  F ield         | OpenFOAM: The Open Source CFD Toolbox           |
|  \\    /   O peration     | Version:  v2012                                 |
|   \\  /    A nd           | Website:  www.openfoam.com                      |
|    \\/     M anipulation  |                                                 |
\*---------------------------------------------------------------------------*/
FoamFile
{
    version     2.0;
    format      ascii;
    class       polyBoundaryMesh;
    location    "constant/air/polyMesh";
    object      boundary;
}
// * * * * * * * * * * * * * * * * * * * * * * * * * * * * * * * * * * * * * //

8
(
    inlet
    {
        type            patch;
        nFaces          3200;
        startFace       847088;
    }
    outlet
    {
        type            patch;
        nFaces          3200;
        startFace       850288;
    }
    side
    {
        type            patch;
        nFaces          7200;
        startFace       853488;
    }
    top
    {
        type            patch;
        nFaces          7200;
        startFace       860688;
    }
    air_to_asphalt
    {
        type            mappedWall;
        inGroups        1(wall);
        nFaces          990;
        startFace       867888;
        sampleMode      nearestPatchFace;
        sampleRegion    asphalt;
        samplePatch     asphalt_to_air;
    }
    air_to_concrete
    {
        type            mappedWall;
        inGroups        1(wall);
        nFaces          898;
        startFace       868878;
        sampleMode      nearestPatchFace;
        sampleRegion    concrete;
        samplePatch     concrete_to_air;
    }
    air_to_buildings
    {
        type            mappedWall;
        inGroups        1(wall);
        nFaces          512;
        startFace       869776;
        sampleMode      nearestPatchFace;
        sampleRegion    buildings;
        samplePatch     buildings_to_air;
    }
    air_to_soil2
    {
        type            mappedWall;
        inGroups        1(wall);
        nFaces          5248;
        startFace       870288;
        sampleMode      nearestPatchFace;
        sampleRegion    soil2;
        samplePatch     soil2_to_air;
    }
)

// ************************************************************************* //
